*HEADING
 Free thermal expansion to back out the actual stretch Abaqus *Expansion gives
*NODE
1,0.,0.,0.
2,1.,0.,0.
3,1.,1.,0.
4,0.,1.,0.
5,0.,0.,1.
6,1.,0.,1.
7,1.,1.,1.
8,0.,1.,1.
*ELEMENT, TYPE=C3D8, ELSET=EALL
1,1,2,3,4,5,6,7,8
*NSET, NSET=NALL, GENERATE
1,8,1
*SOLID SECTION, ELSET=EALL, MATERIAL=BIOFILM_NH
*MATERIAL, NAME=BIOFILM_NH
*HYPERELASTIC, NEO HOOKE
 1.678524e-4, 120.0
*EXPANSION
 1.0
*INITIAL CONDITIONS, TYPE=TEMPERATURE
NALL, 0.0
*STEP, NLGEOM=YES
*STATIC
*BOUNDARY
1, 1, 3
2, 2
2, 3
4, 1
4, 3
5, 1
5, 2
*TEMPERATURE
NALL, 0.1
*OUTPUT, FIELD
*NODE OUTPUT
U
*END STEP
